version 2
run MoBANMobility1-0-20180101-21:24:53-64698
attr configname MoBANMobility1
attr datetime 20180101-21:24:53
attr experiment MoBANMobility1
attr inifile omnetpp.ini
attr iterationvars ""
attr iterationvarsf ""
attr measurement ""
attr network FogNetwork
attr processid 64698
attr repetition 0
attr replication #0
attr resultdir results
attr runnumber 0
attr seedset 0
param **.a.sendIaTime truncnormal(10s,2s)
param **.centralizedCoordinator.coordinationPeriod truncnormal(10s,2s)
param **.cloudHost*.mobility.initFromDisplayString false
param **.constraintAreaMaxX 1000m
param **.constraintAreaMaxY 1000m
param **.constraintAreaMaxZ 0m
param **.constraintAreaMinX 0m
param **.constraintAreaMinY 0m
param **.constraintAreaMinZ 0m
param **.coordinator.sendIaTime truncnormal(5s,2s)
param **.fogHost*.mobility.initFromDisplayString false
param **.fogHost*.mobility.x -1
param **.fogHost*.mobility.y -1
param **.mobileHost*.mobility.changeAngleBy "normal(0deg, 90deg)"
param **.mobileHost*.mobility.changeInterval "truncnormal(5s, 0.5s)"
param **.mobileHost*.mobility.initFromDisplayString false
param **.mobileHost*.mobility.speed "truncnormal(15mps, 5mps)"
param **.mobility.initFromDisplayString false
param **.updateInterval 1s
param *.numCloudHosts 0
param *.numFogHosts 50
param *.numHosts 300

vector 0  FogNetwork.centralizedCoordinator  abratio:vector  ETV
attr interpolationmode  none
attr source  abratioall
attr title  "send/recv, vector"
0	7420	14.482312761939	0
0	12220	23.414709028858	16
0	17812	34.06606194576	15
0	23316	44.554193672788	18
0	29235	55.774586817429	16
0	33557	63.77977528286	16
0	37846	71.715913349966	15
0	43492	82.461611876452	17
0	49595	94.080719141367	17
0	55472	105.271310791257	17
0	60090	113.895751355885	16
0	64736	122.688060954355	16
0	68174	128.901748720084	17
0	74995	142.000795076062	16
0	80496	152.406725746227	16
0	86199	163.252244048414	15
0	93160	176.558076869323	16
0	97236	184.172972947711	17
0	102753	194.595282179621	17
0	104606	197.600251626834	14
0	109439	206.601626937668	17
0	116143	219.458292890396	16
0	120836	228.150550729691	16
0	126087	238.066426887977	16
0	129373	244.017951309064	17
0	133775	252.226794793979	16
0	138405	260.81488262973	15
0	143945	271.464172194088	17
0	148423	279.769865082216	15
0	154939	292.227351585664	15
0	160326	302.458624047654	18
0	163772	308.787024840199	16
0	170314	321.268617156779	17
0	175814	331.765621823597	16
0	182035	343.603454694017	16
0	188782	356.534513401126	17
0	195426	369.253887891116	18
0	200740	379.273499446729	15
0	204475	386.070846759387	17
0	210661	397.875525306096	16
0	216998	410.029973083039	17
0	221175	417.770125351466	16
0	226340	427.451018222641	17
0	233493	441.162684995812	15
0	237188	447.902210913797	19
0	242274	457.569352545098	16
0	247550	467.456393873635	14
0	254214	480.180570589063	18
0	257813	486.789661830587	12
0	263892	498.362739817659	17
0	268696	507.311618937171	16
0	273914	517.255184485203	16
0	278983	526.797246425645	17
0	283673	535.563499904321	14
0	289144	545.876847529286	17
0	293359	553.702162567986	16
0	298409	563.188988679305	16
0	303203	572.189057898405	16
0	307516	580.243386723293	16
0	312111	588.884591431274	16
0	315770	595.50506180374	17
0	320673	604.759693781432	16
0	324620	612.087644732913	14
0	329613	621.507266786235	15
0	334745	631.245922865292	16
0	339623	640.397942187647	18
0	346592	653.765581653056	16
0	351355	662.736011090052	15
0	355375	670.132794863499	17
0	362065	682.947651507868	16
0	367955	694.221498392743	16
0	372820	703.305053956339	16
0	379325	715.853399288644	16
0	384943	726.521495876004	16
0	391193	738.451141458019	16
0	395567	746.563730568957	17
0	400276	755.372667348807	16
0	405263	764.87795683104	17
0	410371	774.480042325701	16
0	416059	785.29709762356	15
0	421744	796.0003582652	16
0	427818	807.641941366491	17
0	432919	817.264543592236	15
0	438104	827.050153722329	15
0	444439	839.125781252141	16
0	448095	845.919704183681	17
0	453239	855.560279310063	17
0	457557	863.623561456588	17
0	463224	874.360914919685	15
0	467108	881.463674954258	16
0	473160	893.102795749983	16
0	478637	903.562269439762	15
0	484477	914.550230894251	18
0	490870	926.752084396824	15
0	497592	939.664406722408	16
0	503505	950.920486556582	16
0	508013	959.38686624514	16
0	512753	968.303041899598	16
0	518220	978.724856085466	18
0	523681	989.108401646433	14
0	528858	998.851723629438	17
0	533594	1007.667682163206	16
0	538844	1017.647542287695	17
0	543141	1025.688440590828	15
0	547591	1033.910659384205	17
0	553505	1045.13898632236	16
0	559015	1055.655542054574	17
0	562914	1062.813086002282	17
0	568470	1073.378882365169	16
0	575223	1086.31870848625	16
0	581037	1097.401425614149	17
0	586729	1108.292996491524	16
0	590446	1115.193477605895	17
0	596500	1126.675546426467	16
0	602544	1138.149198476377	16
0	607657	1147.752913317338	16
0	611287	1154.426377389764	18
0	616921	1165.02800300796	16
0	624079	1178.887100189542	16
0	629461	1189.029239688134	15
0	633580	1196.681740520984	16
0	640606	1210.207300679031	17
0	645669	1219.639641762286	15
0	650995	1229.759469787293	17
0	656771	1240.718112178699	15
0	661361	1249.365878663619	18
0	669078	1264.149097130252	16
0	674664	1274.716518205139	16
0	678222	1281.148002766818	16
0	681965	1288.000908465692	16
0	686634	1296.789881615543	15
0	691887	1306.639343103504	16
0	698489	1319.293684943372	16
0	704755	1331.350421734363	18
0	709252	1339.724008684729	16
0	714463	1349.64188565833	16
0	719462	1359.026033743015	16
0	723844	1367.189561928042	15
0	730287	1379.410478667465	17
0	733968	1386.241797094248	15
0	739439	1396.719836421135	16
0	743684	1404.626887861947	16
0	749719	1416.184407017571	17
0	755579	1427.27728515016	16
0	760661	1436.926769716272	16
0	766430	1447.858546689394	16
0	770397	1455.153309238602	18
0	775440	1464.705425279415	15
0	780862	1475.074485722089	17
0	786432	1485.648852163238	17
0	790895	1493.984881177643	15
0	795095	1501.746054010337	16
0	800811	1512.560124910908	17
0	805265	1520.859847462599	17
0	809969	1529.605230868499	16
0	815449	1540.090772171444	16
0	820054	1548.715371932338	15
0	827407	1562.786652615759	16
0	831733	1570.858998481757	17
0	836878	1580.559915041562	17
0	840622	1587.404822448605	15
0	845794	1597.129693521769	15
0	851873	1608.787447705539	16
0	855327	1614.962017361064	19
0	859883	1623.507713275181	17
0	864831	1632.818262036903	14
0	871046	1644.586987455864	17
0	875964	1653.854651678245	16
0	882291	1665.832963209317	15
0	887153	1674.952785170166	17
0	892584	1685.355915941852	16
0	898401	1696.386696703057	17
0	905386	1709.783777673274	17
0	911180	1720.822991995654	16
0	918149	1734.207096661639	16
0	922280	1741.866151754987	18
0	928591	1753.93920083362	16
0	934274	1764.756644459769	16
0	940565	1776.663808474094	16
0	946569	1788.206109883596	17
0	953095	1800.721661356905	16
0	957226	1808.314388253889	16
0	962529	1818.292625487531	17
0	968397	1829.51613917811	16
0	973437	1839.036223692987	15
0	978651	1848.856229807349	16
0	983700	1858.313612615505	15
0	986665	1863.615832076611	19
0	992583	1874.953273146669	15
0	998332	1885.787493066326	16
0	1003244	1895.022023865377	15
0	1010056	1908.074104384593	17
0	1015327	1918.031103705618	16
0	1020835	1928.498280945863	15
0	1026275	1938.615580758867	15
0	1033402	1952.448472541988	16
0	1039598	1964.263489440851	18
0	1045468	1975.372396456016	16
0	1052499	1988.875995326347	16
0	1058799	2001.042666623151	16
0	1064758	2012.272925491501	17
0	1069095	2020.372209452409	15
0	1076114	2033.972897501943	16
0	1082268	2045.651929519645	16
0	1088576	2057.685953785864	15
0	1094331	2068.660428189593	17
0	1099486	2078.395959540609	16
0	1104333	2087.432672189104	16
0	1109705	2097.595106292941	16
0	1113976	2105.526955138104	16
0	1120569	2118.224283378691	16
0	1126656	2129.847845235654	16
0	1130266	2136.468110284577	18
0	1134225	2143.665201456925	16
0	1136918	2148.308412256924	13
0	1142238	2158.440625690943	15
0	1146935	2167.165930977318	18
0	1152483	2177.72532839066	17
0	1159308	2190.837356233136	15
0	1165027	2201.698088006846	16
0	1170125	2211.354808458698	16
0	1175351	2221.207798849564	16
0	1180627	2231.112034234046	15
0	1185376	2240.085319984149	16
0	1189975	2248.675033058685	17
0	1195648	2259.536351866585	16
0	1203019	2273.76388118259	16
0	1208712	2284.504202106345	17
0	1214956	2296.449970031915	15
0	1219910	2305.8326014237	18
0	1224422	2314.179408514662	15
0	1228498	2321.768651149823	17
0	1231489	2327.122567577439	16
0	1234229	2331.98998280434	16
0	1238411	2339.767577878779	14
0	1243713	2349.72621779091	17
0	1248658	2359.009724096717	18
0	1254243	2369.610047610287	16
0	1259742	2380.015033532809	16
0	1263995	2387.932452594206	17
0	1269125	2397.549288790356	16
0	1275825	2410.287367342628	16
0	1280049	2418.164220215091	14
0	1284190	2425.822675306715	17
0	1289042	2434.897474773637	17
0	1293810	2443.842238330436	15
0	1298426	2452.427508730336	18
0	1302868	2460.716879610273	17
0	1309864	2474.167348905557	15
0	1316003	2485.881165903832	16
0	1321925	2497.21924808056	16
0	1325964	2504.698382798605	15
0	1330460	2513.109788627531	16
0	1335965	2523.593281234293	17
0	1340277	2531.60354928337	16
0	1344871	2540.271362221524	16
0	1348540	2547.011902323287	16
0	1353497	2556.326509544831	17
0	1359901	2568.480681908461	16
0	1366206	2580.518347993336	17
0	1371088	2589.649661321365	15
0	1377510	2602.024619509845	16
0	1383958	2614.328705305586	16
0	1389350	2624.506053693088	17
0	1394156	2633.547593730558	16
0	1398969	2642.667466112349	18
0	1403044	2650.276761829393	17
0	1408345	2660.268437435507	16
0	1415274	2673.654490070841	16
0	1420479	2683.451865109445	17
0	1426673	2695.212449793914	16
0	1429640	2700.546739471918	14
0	1434356	2709.336297023734	17
0	1439271	2718.477072353732	18
0	1446654	2732.794830247025	15
0	1451434	2741.706874928439	17
0	1454523	2747.194349966072	17
0	1460372	2758.393134882598	15
0	1466007	2769.124446950008	17
0	1472512	2781.524157301893	16
0	1477091	2790.056971112853	16
0	1480379	2795.98478017908	18
0	1486426	2807.493422898757	15
0	1492554	2819.199424871939	16
0	1498012	2829.413169905371	15
0	1503688	2840.112316279807	17
0	1507442	2847.031140679984	16
0	1514670	2860.956800655846	17
0	1520718	2872.446515480755	16
0	1525852	2882.006157781961	17
0	1532003	2893.744301440612	15
0	1538159	2905.564496334066	16
0	1542419	2913.490007848796	16
0	1545638	2919.284496936562	17
0	1550527	2928.408175577121	16
0	1556633	2940.10981691598	15
0	1564149	2954.607044464903	17
0	1567737	2961.133264535078	16
0	1572741	2970.551612095985	17
0	1576637	2977.785676070552	15
0	1581368	2986.611318043119	16
0	1585591	2994.477621915212	18
0	1591384	3005.542546347025	15
0	1597277	3016.674181090586	17
0	1601071	3023.661639037103	17
0	1605957	3032.764972141918	17
0	1610929	3042.147324695735	17
0	1615250	3050.14604885991	16
0	1618946	3056.902965541555	13
0	1625303	3069.097417790647	17
0	1632657	3083.184156272637	16
0	1636331	3089.779456407029	16
0	1641318	3099.24026306907	15
0	1645813	3107.639666787444	17
0	1649172	3113.770229636662	16
0	1653753	3122.31694955236	16
0	1658737	3131.707027181419	17
0	1665140	3143.945716707455	17
0	1670777	3154.633593985776	16
0	1674093	3160.636561960501	16
0	1680880	3173.697463214806	15
0	1688347	3188.103397365047	17
0	1694523	3199.884511149509	16
0	1699920	3210.125374841033	17
0	1705459	3220.636315811568	17
0	1710918	3231.048330619327	15
0	1716409	3241.478635172137	16
0	1721648	3251.370598745083	17
0	1727753	3262.991960667519	16
0	1733496	3273.918391109663	15
0	1738796	3283.872493114732	16
0	1743793	3293.204817776065	17
0	1748453	3302.020102289636	16
0	1754426	3313.370178345659	17
0	1760341	3324.548082791121	16
0	1766548	3336.467761683579	16
0	1771980	3346.78351623227	16
0	1776586	3355.376089457123	16
0	1781594	3364.851655835373	16
0	1788581	3378.192320266319	17
0	1794733	3389.898484368724	15
0	1799239	3398.313680894581	17
0	1803348	3405.870885211282	16
0	1807615	3413.821927737036	14
0	1813203	3424.432487865835	17
0	1817416	3432.242471616303	19
0	1823646	3444.062951891409	16
0	1828182	3452.502611178049	16
0	1833638	3462.834147363385	16
0	1840224	3475.364479401847	17
0	1846684	3487.75820652098	14
0	1852622	3499.077544996266	17
0	1858842	3510.930590455587	17
0	1863596	3519.817073161365	17
0	1869279	3530.549725266546	15
0	1873125	3537.590066766539	16
0	1878543	3547.898311000546	16
0	1884379	3559.090060115336	18
0	1889489	3568.733770154573	13
0	1893927	3576.968585418206	18
0	1899389	3587.321044931166	16
0	1904079	3596.028965048121	17
0	1909285	3605.869773851962	15
0	1915219	3617.078887958019	16
0	1919455	3624.953294765202	17
0	1923634	3632.642239064898	16
0	1929439	3643.688709123266	16
0	1936595	3657.435444320164	16
0	1941282	3666.161576733807	16
0	1947691	3678.376411079897	16
0	1951567	3685.578017785977	16
0	1957684	3697.117290356929	17
0	1962508	3706.143552485394	16
0	1968141	3716.869106116348	17
0	1974391	3728.799586846946	16
0	1978935	3737.30630037811	17
0	1985787	3750.42321374139	16
0	1989100	3756.4940115972	18
0	1994687	3766.991939556256	16
0	2000291	3777.646879388001	18
0	2005930	3788.31804609276	15
0	2011007	3797.882512068438	17
0	2016537	3808.359560773491	17
0	2022564	3819.84688729397	16
0	2027103	3828.330924877063	16
0	2032672	3838.992520011967	16
0	2038480	3849.942598886121	17
0	2044560	3861.569390790531	15
0	2049247	3870.353047845922	18
0	2053869	3878.934468757856	18
0	2060093	3890.87420453392	16
0	2068198	3906.472894557901	16
0	2073580	3916.660784851532	16
0	2077499	3923.944167741581	16
0	2081674	3931.72412442278	17
0	2085365	3938.439063945013	16
0	2089359	3945.843568291851	16
0	2093682	3953.803779205291	17
0	2098944	3963.811270542542	16
0	2104329	3973.999869330633	16
0	2110327	3985.42624730427	15
0	2116097	3996.419184394424	17
0	2121580	4006.737142815032	15
0	2127735	4018.463106981866	17
0	2134836	4032.137360481777	15
0	2139471	4040.812318755482	17
0	2145057	4051.459285396196	15
0	2148880	4058.485106810946	17
0	2154175	4068.481840876834	15
0	2160680	4081.044317567742	17
0	2167375	4093.934675746802	15
0	2170389	4099.35694911588	19
0	2175226	4108.431780324061	16
0	2178841	4115.040065935195	14
0	2185985	4128.84683911098	17
0	2191396	4139.023332098018	17
0	2197665	4151.063643606813	16
0	2202021	4159.200051576828	17
0	2206874	4168.347663077153	16
0	2212399	4178.797805294103	17
0	2218291	4189.997583171835	15
0	2223179	4199.258127837693	18
0	2228838	4209.969600933052	15
0	2234161	4219.916857852793	17
0	2240962	4233.04788504461	19
0	2248468	4247.503337252165	15
0	2253866	4257.654193155495	16
0	2257144	4263.601064314192	15
0	2261450	4271.657880135864	18
0	2266937	4282.016955328746	16
0	2273215	4294.045517368167	17
0	2278434	4303.892043693129	14
0	2284075	4314.518884972267	18
0	2287816	4321.394417305201	16
0	2294996	4335.296597720521	15
0	2298633	4341.896625168566	17
0	2303910	4351.907093182795	18
0	2306820	4357.161484163419	15
0	2312549	4368.006580998324	17
0	2318218	4378.696122432714	15
0	2324228	4390.134049379548	16
0	2328880	4398.800073587866	17
0	2335459	4411.431985590871	15
0	2341553	4423.022799519181	16
0	2346411	4432.168856012923	15
0	2351988	4442.676827244942	18
0	2355987	4450.002688174118	17
0	2359436	4456.189954092789	14
0	2366982	4470.81243786462	17
0	2370771	4477.74733548636	16
0	2374094	4483.868786799551	14
0	2379064	4493.193902816709	17
0	2383328	4501.171483731339	18
0	2391080	4516.206353264177	16
0	2396350	4526.15079542805	15
0	2401657	4536.14761566377	18
0	2407842	4548.055986827684	15
0	2413457	4558.68042847382	15
0	2418791	4568.74547235177	17
0	2423208	4576.963434744118	16
0	2428029	4586.009754433736	16
0	2432440	4594.147283373493	17
0	2437070	4602.782410128184	16
0	2443849	4615.866212830764	16
0	2448614	4624.749779674487	16
0	2452671	4632.354202062922	15
0	2456359	4639.076377138055	15
0	2463482	4652.858388536271	17
0	2470440	4666.157248384309	17
0	2474753	4674.149562524628	17
0	2480361	4684.839381883428	17
0	2485071	4693.653520614935	14
0	2491054	4705.146536004241	16
0	2497185	4716.862747526404	18
0	2502044	4725.985493811315	17
0	2506673	4734.590792914354	16
0	2511978	4744.525803099923	16
0	2517664	4755.373693832785	16
0	2523112	4765.72922592049	16
0	2527589	4774.003866333888	16
0	2533963	4786.145567772831	17
0	2539150	4795.902535001157	16
0	2544122	4805.331716909224	17
0	2549763	4816.082980768269	15
0	2556318	4828.529381066838	16
0	2560672	4836.596446558857	16
0	2565707	4846.103802110004	18
0	2571172	4856.458672156989	15
0	2576808	4867.109094099295	17
0	2582985	4879.021018652487	16
0	2589223	4890.860634454757	16
0	2593446	4898.784682028552	14
0	2599691	4910.642323246453	18
0	2606315	4923.328076790645	16
0	2611414	4932.905537785354	18
0	2617950	4945.489849548015	16
0	2622322	4953.698812274196	13
0	2628459	4965.318187062134	16
0	2633985	4975.772419601088	16
0	2638513	4984.166192052341	17
0	2645390	4997.457769445787	16
0	2648036	5002.164232431301	17
0	2654982	5015.548472960015	15
0	2660148	5025.315455304367	19
0	2666218	5036.809132702831	16
0	2672190	5048.17742946829	16
0	2677625	5058.4048235547	17
0	2681735	5066.011584504044	15
0	2686240	5074.427257825153	16
0	2690341	5082.017325933431	18
0	2694639	5089.968272877012	16
0	2702249	5104.681308705934	16
0	2707127	5113.790048743592	16
0	2711448	5121.900105243203	18
0	2716261	5130.866375028106	16
0	2721738	5141.263567337542	17
0	2726426	5150.022678665305	16
0	2731073	5158.721848469715	15
0	2736625	5169.272334402026	17
0	2742077	5179.635637739983	16
0	2747281	5189.600033485995	15
0	2752105	5198.722181723992	17
0	2758151	5210.255851304879	17
0	2764930	5223.211017318828	15
0	2770672	5234.163685615805	17
0	2776722	5245.706972408143	17
0	2781505	5254.780319070105	15
0	2785546	5262.185427976792	17
0	2790357	5271.171921789105	15
0	2795197	5280.293406615608	16
0	2798293	5285.90519696413	19
0	2803662	5296.044687867668	14
0	2810472	5309.045741387787	17
0	2814820	5317.183478163846	14
0	2820932	5328.932486861891	17
0	2826861	5340.175387614463	17
0	2831475	5348.834114225483	18
0	2836337	5357.921378155217	15
0	2842048	5368.653011614372	17
0	2847873	5379.711697511222	16
0	2855515	5394.468153107336	16
0	2860582	5403.913414622197	17
0	2867361	5416.8168282235	17
0	2872469	5426.482348019592	16
0	2878732	5438.448746912358	16
0	2882053	5444.472095331039	15
0	2889545	5458.808077073984	17
0	2895618	5470.451667354089	16
0	2900680	5479.987868439743	14
0	2905865	5489.790798370476	17
0	2910983	5499.336542122475	17
0	2914566	5505.899359269907	14
0	2919516	5515.172681317546	17
0	2925358	5526.289337320131	18
0	2930339	5535.649031990547	15
0	2936255	5546.87958950471	17
0	2941848	5557.463516719058	16
0	2946518	5566.254488593372	16
0	2952385	5577.310997486104	17
0	2957953	5587.914745317623	15
0	2963515	5598.470027219497	17
0	2968869	5608.626245096767	17
0	2973248	5616.772120391028	14
0	2978478	5626.641710148696	17
0	2982506	5634.137893773552	16
0	2987624	5643.735041164807	17
0	2994670	5657.334941006634	17
0	3000213	5667.868331523604	16
0	3005164	5677.141363795082	16
0	3010220	5686.645609462937	18
0	3016369	5698.400359225741	15
0	3022937	5710.961997704057	17
0	3026272	5717.059592013736	14
0	3031495	5726.886297126315	17
0	3036842	5737.014497632345	16
0	3042093	5746.858944521293	17
0	3044666	5751.396477861934	16
0	3050089	5761.80020893189	15
0	3055256	5771.500014206448	17
0	3060525	5781.477912411062	16
0	3065226	5790.214635793808	16
0	3068888	5796.988599452691	14
0	3074466	5807.658227210363	16
0	3079631	5817.464045335597	16
0	3084605	5826.710467561711	17
0	3090216	5837.332936242463	16
0	3092851	5841.900686826978	16
0	3099135	5853.993226649906	17
0	3103841	5862.646520450684	17
0	3110106	5874.627124999488	16
0	3116074	5885.97458901909	17
0	3122609	5898.584790178026	17
0	3126837	5906.400679640374	15
0	3132837	5917.794921086761	16
0	3140264	5932.125776878034	16
0	3147214	5945.401893578389	15
0	3152737	5955.817246343327	17
0	3156375	5962.451890198776	16
0	3162808	5974.80646100721	16
0	3167076	5982.641760514709	18
0	3171908	5991.628464225444	18
0	3176591	6000.408967982326	14
0	3181487	6009.611824265944	17
0	3187083	6020.246626894302	15
0	3191244	6027.972444618704	15
0	3196519	6037.867949218746	14
0	3202969	6050.226388584008	17
0	3206664	6056.920437594325	16
0	3211189	6065.41359377556	15
0	3218099	6078.666611293318	17
0	3223946	6089.796746187346	16
0	3229378	6100.107051297348	15
0	3233710	6108.232088786788	18
0	3237338	6114.818821326655	16
0	3242680	6124.918670448917	16
0	3248511	6136.023681690066	15
0	3254342	6147.072220771786	16
0	3258521	6154.787094732296	18
0	3263420	6164.048851371943	16
0	3267958	6172.463937666391	15
0	3273375	6182.660450034111	16
0	3277221	6189.725907290251	18
0	3282410	6199.525757154087	16
0	3287803	6209.778211550282	15
0	3294090	6221.792957110703	15
0	3299654	6232.338727682491	16
0	3307006	6246.586478351075	15
0	3311835	6255.644290752514	18
0	3316437	6264.287225817262	13
0	3321637	6274.177699158654	16
0	3326277	6282.850242272111	16
0	3329652	6288.814219593559	17
0	3336276	6301.642396885586	17
0	3341058	6310.546373329996	17
0	3346465	6320.808345139644	14
0	3351163	6329.582101501325	17
0	3357956	6342.631266089459	16
0	3364770	6355.798210992018	17
0	3371079	6367.90464799443	16
0	3375592	6376.353154521507	17
0	3378911	6382.327496535308	17
0	3383673	6391.21952730961	16
0	3391396	6406.077063374392	15
0	3396146	6415.026832028911	16
0	3402576	6427.410185107931	15
0	3409275	6440.232560191207	17
0	3413582	6448.245763508094	16
0	3418569	6457.608531114293	17
0	3424591	6469.057527328578	17
0	3429532	6478.405892660664	14
0	3434285	6487.243938165691	16
0	3439710	6497.475014235135	17
0	3446657	6510.807506469399	16
0	3451627	6520.199910748727	16
0	3458652	6533.60512687354	16
0	3463724	6543.16800687437	15
0	3468347	6551.791774554535	16
0	3473373	6561.294603105361	16
0	3478652	6571.225638893156	18
0	3482308	6577.917985821337	15
0	3488625	6589.942921001883	17
0	3492891	6597.912308094756	17
0	3498933	6609.455790065104	16
0	3504607	6620.283794319981	16
0	3510188	6630.86625730179	15
0	3517067	6644.112058725308	17
0	3523067	6655.564154069558	16
0	3529181	6667.170941847689	17
0	3532987	6674.18865760437	14
0	3536531	6680.617718434458	16
0	3540488	6687.970601577955	17
0	3547874	6702.179461536902	15
0	3552696	6711.245522276354	16
0	3558181	6721.633493411171	16
0	3563783	6732.344152121628	16
0	3567825	6739.878548429362	16
0	3571682	6747.075362272355	16
0	3576772	6756.642921834195	17
0	3581572	6765.602935575065	15
0	3586220	6774.282231025891	15
0	3589979	6781.124572145567	16
0	3596296	6793.179751722426	16
0	3602769	6805.519425544659	15
0	3608238	6815.924367598345	18
0	3612699	6824.331976938832	13
0	3618720	6835.837604394764	18
0	3624449	6846.662658010643	16
0	3629364	6855.853689795797	16
0	3634163	6864.907314338471	16
0	3640169	6876.426275290658	17
0	3645906	6887.297234066904	17
0	3651724	6898.352496785664	16
0	3656963	6908.235269307086	17
0	3661724	6917.144409789797	17
0	3668319	6929.665302270687	15
0	3674041	6940.601854179597	17
0	3679781	6951.429883716928	17
0	3685944	6963.135741614079	15
0	3691261	6973.193281822844	17
0	3696405	6982.938852078834	17
0	3702169	6993.886321967407	16
0	3706787	7002.558001319705	17
0	3711674	7011.755373497096	16
0	3716363	7020.504223827521	15
0	3721157	7029.511586130397	16
0	3727271	7041.159520159938	17
0	3731416	7048.88598730893	18
0	3736721	7058.918136312655	15
0	3741319	7067.495938122929	17
0	3747920	7080.247555216315	16
0	3755938	7095.777061357705	16
0	3760646	7104.640540806295	14
0	3766712	7116.139035631206	16
0	3771685	7125.538888677836	17
0	3777716	7137.082268286237	17
0	3783936	7149.046436767303	15
0	3789095	7158.618918461861	15
0	3794832	7169.54358444042	16
0	3801353	7182.031139505579	16
0	3805660	7190.055514120714	15
0	3810783	7199.712498168145	17
0	3815632	7208.796430246039	17
0	3821159	7219.283306058891	17
0	3826289	7228.938741861933	15
0	3832407	7240.623156083582	16
0	3838193	7251.541693990233	16
0	3843421	7261.440870839589	16
0	3849014	7271.998553198629	16
0	3853454	7280.311839539204	16
0	3859979	7292.777106859419	17
0	3865700	7303.706872658429	16
0	3870429	7312.520443274053	15
0	3875864	7322.763053376231	16
0	3880660	7331.747753665573	17
0	3887113	7343.993992920976	16
0	3889957	7349.090142453217	17
0	3895493	7359.508440553129	17
0	3899800	7367.504506688581	15
0	3904061	7375.478697209852	18
0	3908731	7384.253265037241	16
0	3913628	7393.383093226721	15
0	3919444	7404.540781560027	15
0	3924493	7413.997207672697	16
0	3931158	7426.658416308336	16
0	3935558	7434.821993925257	18
0	3941524	7446.244058114417	15
0	3947532	7457.641757240811	15
0	3953999	7469.901718523594	16
0	3957972	7477.306280652759	16
0	3965242	7491.278913755545	17
0	3972409	7505.039838832475	16
0	3977318	7514.264482505383	15
0	3983334	7525.777389136898	17
0	3987871	7534.215640811791	17
0	3991381	7540.664536995753	16
0	3997681	7552.61379051172	15
0	4002516	7561.695020995068	16
0	4006234	7568.478519006872	17
0	4013455	7582.45556101297	16
0	4018153	7591.254422511551	17
0	4022866	7600.051054697514	16
0	4030500	7614.907134262842	16
0	4037125	7627.543438248963	16
0	4041737	7636.117520724801	15
0	4045208	7642.483425649679	16
0	4050284	7652.043164794	16
0	4056765	7664.322623006907	15
0	4061025	7672.301503227998	19
0	4066847	7683.349720626221	15
0	4072659	7694.39259669029	15
0	4078448	7705.334923104398	17
0	4084320	7716.590606457731	15
0	4092471	7732.360435837317	17
0	4099205	7745.277838033326	17
0	4105103	7756.479637286159	15
0	4110338	7766.407211902522	16
0	4115152	7775.425726629897	16
0	4120156	7784.86162321097	17
0	4126312	7796.593504519516	16
0	4131140	7805.666656261518	17
0	4137347	7817.570022926054	15
0	4141144	7824.457642173896	17
0	4145909	7833.381112427547	16
0	4150576	7842.065331663385	16
0	4153809	7847.885799957613	19
0	4156607	7852.793713099003	15
0	4160896	7860.787265387485	19
0	4167144	7872.774114980777	15
0	4172316	7882.563654741484	16
0	4177656	7892.644869219018	17
0	4182554	7901.908378350768	15
0	4188379	7913.010579798083	16
0	4192458	7920.582382861774	17
0	4196294	7927.591943942836	15
0	4201956	7938.277771467565	16
0	4209329	7952.48482381968	15
0	4214774	7962.814704704947	16
0	4219446	7971.534187470755	18
0	4224751	7981.553601798749	15
0	4229218	7989.883806241216	16
0	4233162	7997.086457780978	15
0	4237732	8005.644809634115	17
0	4243098	8015.825781529303	15
0	4246057	8021.097835075737	13
0	4252089	8032.578986151672	18
0	4257411	8042.677840952352	17
0	4263027	8053.378880631725	16
0	4268756	8064.237679305376	16
0	4272721	8071.570261211288	17
0	4279037	8083.720374786914	16
0	4283056	8091.125953913459	17
0	4288322	8101.09815896117	17
0	4293922	8111.72061722875	16
0	4300427	8124.203205775963	16
0	4307285	8137.380664228097	16
0	4312601	8147.460935566846	15
0	4316522	8154.628803224773	19
0	4323371	8167.648344225433	16
0	4328671	8177.697401635397	16
0	4334574	8188.941287519332	16
0	4340207	8199.680333885945	16
0	4345295	8209.192831050745	16
0	4350116	8218.361749406769	17
0	4356896	8231.378997600893	16
0	4362932	8242.861234150256	15
0	4369026	8254.482766430856	16
0	4373802	8263.471005797201	18
0	4379867	8275.126366636236	16
0	4386588	8287.889764215069	15
0	4390672	8295.495452941468	17
0	4395836	8305.182491545421	18
0	4399739	8312.411245790452	15
0	4406171	8324.713301498704	17
0	4411644	8335.102849192407	14
0	4418138	8347.555869754979	16
0	4424437	8359.671124380641	16
0	4430326	8370.896421357758	15
0	4433845	8377.41094294865	20
0	4438868	8386.788900213156	15
0	4443962	8396.340565599342	15
0	4448027	8403.819598196276	17
0	4453745	8414.756469086617	16
0	4458537	8423.806567064428	17
0	4462323	8430.769615858068	15
0	4468107	8441.819400419106	17
0	4473080	8451.259598143223	15
0	4478468	8461.590939340741	18
0	4483834	8471.717136988705	16
0	4489138	8481.684493162821	16
0	4494286	8491.393992020478	17
0	4499027	8500.185679202498	16
0	4503756	8509.095963391709	16
0	4507226	8515.45634706834	16
0	4513620	8527.607001702545	17
0	4519926	8539.676544659512	15
0	4525264	8549.743594651341	15
0	4530268	8559.183345257583	18
0	4535253	8568.501373335417	16
0	4542076	8581.603308104036	17
0	4547467	8591.803863479932	18
0	4552789	8601.801793267256	16
0	4557193	8610.08042799632	14
0	4563188	8621.444056106351	16
0	4570300	8635.138881609297	16
0	4576128	8646.270428145073	16
0	4582447	8658.276787225486	16
0	4585046	8662.873146938739	15
0	4591446	8675.090198432579	16
0	4597574	8686.665870880199	16
0	4601304	8693.620281207403	15
0	4607620	8705.739188495648	15
0	4612628	8715.137615832325	17
0	4617631	8724.611752020838	16
0	4622215	8733.06190279942	16
0	4627543	8743.308235343104	15
0	4634235	8756.13837374468	17
0	4638798	8764.654401646075	16
0	4643155	8772.738714837263	15
0	4648050	8782.010906439509	15
0	4652121	8789.582889162308	18
0	4659023	8802.838336232441	17
0	4664175	8812.511409185609	16
0	4671198	8826.132765530245	16
0	4675980	8835.073613687407	15
0	4680806	8844.124214239223	17
0	4685422	8852.802631417271	17
0	4691248	8863.933986720573	15
0	4697864	8876.540256726727	18
0	4702733	8885.758419306474	14
0	4708268	8896.237344675043	17
0	4715859	8910.949610196632	15
0	4723755	8926.190129564759	16
0	4729493	8937.151922178267	17
0	4736914	8951.480891026423	16
0	4742711	8962.421860915912	19
0	4748750	8974.025283947384	14
0	4754045	8984.054525659285	17
0	4758920	8993.324869149631	13
0	4765668	9006.209086382419	17
0	4770211	9014.642119254597	17
0	4775151	9023.936825540386	16
0	4780593	9034.286706942936	17
0	4787208	9046.956058941751	14
0	4793409	9058.842927943948	18
0	4800431	9072.383139520456	16
0	4807004	9084.906167577704	17
0	4813107	9096.66456302752	15
0	4818289	9106.384981962111	16
0	4823062	9115.392945448779	18
0	4827761	9124.184984274974	16
0	4832635	9133.347201695356	17
0	4837930	9143.407290344559	13
0	4842905	9152.756429477224	16
0	4849785	9165.920421691578	18
0	4855047	9175.798080171219	15
0	4861293	9187.750583116596	17
0	4867861	9200.299634839315	15
0	4873473	9210.918851699122	17
0	4876875	9217.106697053298	16
0	4881753	9226.211542880022	17
0	4885809	9233.775086043769	14
0	4891687	9244.98038639688	17
0	4897695	9256.457063052727	15
0	4903396	9267.249984913571	16
0	4911334	9282.572119107706	16
0	4915959	9291.246238159179	16
0	4919696	9298.059011275475	18
0	4926704	9311.564907459471	16
0	4931018	9319.649444241122	17
0	4936554	9330.151310091742	14
0	4941387	9339.215346323803	17
0	4947915	9351.843055128828	16
0	4953707	9362.829506522267	16
0	4958113	9371.03968389178	17
0	4964055	9382.342975583108	16
0	4968926	9391.457901992975	16
0	4973478	9399.868088301845	17
0	4978453	9409.162608035234	15
0	4983352	9418.416887396767	16
0	4987994	9427.114744887448	16
0	4993237	9437.023899375609	16
0	4998299	9446.453359291569	16
0	5003587	9456.441176377947	17
0	5008880	9466.534384644111	17
0	5013591	9475.315667639944	16
0	5019709	9487.022222013042	18
0	5023804	9494.59070048456	14
0	5028542	9503.522591540114	17
0	5033136	9512.012159986998	17
0	5039985	9525.160150885545	16
0	5047083	9538.845708713172	15
0	5051830	9547.765847094314	16
0	5056943	9557.439193362103	18
0	5062356	9567.746537865436	14
0	5067838	9578.060822208767	16
0	5073688	9589.159264697906	16
0	5078642	9598.386725188382	16
0	5083941	9608.472031078878	17
0	5088723	9617.508013421354	16
0	5094748	9628.997129538652	16
0	5099266	9637.43329101141	15
0	5103136	9644.477193896294	16
0	5109142	9655.956858559631	16
0	5115023	9667.220731017411	16
0	5117861	9672.208058597077	14
0	5122512	9680.830125668752	17
0	5127761	9690.697578634861	16
0	5133939	9702.485696625313	16
0	5139883	9713.765701626927	16
0	5145434	9724.324439010511	15
0	5151061	9734.912106898728	17
0	5155231	9742.673010999156	17
0	5160847	9753.382971953091	15
0	5167558	9766.413535866478	17
0	5172751	9776.224092656968	16
0	5177155	9784.518980163483	16
0	5182864	9795.274641839535	15
0	5187432	9803.885264822023	18
0	5191765	9811.92381955144	15
0	5198929	9825.691212938014	15
0	5204189	9835.564353883797	17
0	5208584	9843.862822080139	17
0	5214594	9855.333946182106	15
0	5218224	9862.047307093513	16
0	5224647	9874.340513690187	17
0	5230275	9885.033101347097	15
0	5236204	9896.267125323439	17
0	5240555	9904.40472209038	16
0	5246090	9914.846035076133	15
0	5251444	9925.008638929673	17
0	5256548	9934.568504481777	15
0	5260919	9942.692898691228	16
0	5266544	9953.458562126524	17
0	5273201	9966.266200046384	16
0	5278632	9976.535866251458	16
0	5283552	9985.825172078343	16
0	5288218	9994.540352158901	17
0	5293413	10004.379857761337	14
0	5298470	10013.874002537001	15
0	5302589	10021.540261022674	17
0	5307496	10030.738788935058	15
0	5313334	10041.750732828224	17
0	5317763	10050.028889000807	16
0	5321832	10057.524514600698	20
0	5326908	10067.033438953275	16
0	5332028	10076.706227521051	14
0	5337498	10087.01607350829	17
0	5343479	10098.375238030449	16
0	5350794	10112.451876789757	17
0	5356835	10124.121661018465	16
0	5361174	10132.216396086924	14
0	5364887	10139.009242357631	19
0	5369027	10146.663034471659	16
0	5374295	10156.580052789266	15
0	5377904	10163.2499275817	15
0	5383248	10173.35228049769	18
0	5388381	10182.971877582759	16
0	5394902	10195.453122962645	16
0	5401362	10207.802978108774	16
0	5408505	10221.567523635824	17
0	5414487	10232.945458303805	14
0	5419736	10242.807369183543	17
0	5424402	10251.448304979432	16
0	5430306	10262.756910695563	17
0	5433870	10269.279395524799	15
0	5438865	10278.636803452439	16
0	5443203	10286.672492187676	17
0	5449971	10299.7088028631	15
0	5455590	10310.39598423838	18
0	5458542	10315.639221996177	14
0	5461976	10321.860709785723	18
0	5467964	10333.320096379557	17
